<?xml version="1.0" encoding="UTF-8"?>

<!-- generated on 2022-12-24 16:23:47 by Eclipse SUMO netedit Version 1.15.0
-->

<routes xmlns:xsi="http://www.w3.org/2001/XMLSchema-instance" xsi:noNamespaceSchemaLocation="http://sumo.dlr.de/xsd/routes_file.xsd">
    <!-- Routes -->
    <route id="r_0" edges="-834006813#2 -834006814#1 834006812#0 834006815"/>
    <route id="r_1" edges="-834006814#1 -885173795#2"/>
    <route id="r_2" edges="1040258017 885173795#0 834006812#0"/>
    <route id="r_3" edges="1040258017 885173795#0 834006814#0"/>
    <!-- Vehicles, persons and containers (sorted by depart) -->
    <trip id="t_0" depart="0.00" from="-834006814#1" to="-834006814#1"/>
    <trip id="t_1" depart="0.00" from="-834006814#1" to="-834006814#1"/>
    <trip id="t_2" depart="0.00" from="-834006813#2" to="-834006813#2"/>
    <trip id="t_3" depart="0.00" from="-834006813#2" to="-834006813#2"/>
    <trip id="t_4" depart="0.00" from="885173795#0" to="885173795#0"/>
    <trip id="t_5" depart="0.00" from="-834006814#1" to="-885173795#2"/>
</routes>
