<?xml version="1.0" encoding="UTF-8"?>

<!-- generated on 2022-12-25 17:26:32 by Eclipse SUMO netedit Version 1.15.0
-->

<routes xmlns:xsi="http://www.w3.org/2001/XMLSchema-instance" xsi:noNamespaceSchemaLocation="http://sumo.dlr.de/xsd/routes_file.xsd">
    <!-- Routes -->
    <route id="approach1_right" edges="1040258016 1040258017 885173795#0 834006812#0 834006815"/>
    <route id="approach1_straight" edges="1040258016 1040258017 885173795#0 834006814#0"/>
    <route id="approach2_left" edges="-834006813#2 834006812#0 834006815"/>
    <route id="approach2_straight" edges="-834006813#2 -885173795#2 -627181818 -1040258016"/>
    <route id="approach3_left" edges="-201894096#2 -834006812#2 -885173795#2 -627181818"/>
    <route id="approach3_right" edges="-201894096#2 -834006812#2 834006814#0"/>
    <!-- Vehicles, persons and containers (sorted by depart) -->
    <flow id="f1" begin="0.00" route="approach1_straight" end="3600.00" vehsPerHour="900.00"/>
    <flow id="f2" begin="0.00" route="approach1_right" end="3600.00" vehsPerHour="900.00"/>
    <flow id="f3" begin="0.00" route="approach2_straight" end="3600.00" vehsPerHour="900.00"/>
    <flow id="f4" begin="0.00" route="approach2_left" end="3600.00" vehsPerHour="900.00"/>
    <flow id="f5" begin="0.00" route="approach3_left" end="3600.00" vehsPerHour="900.00"/>
    <flow id="f6" begin="0.00" route="approach3_right" end="3600.00" vehsPerHour="900.00"/>

    <vehicle id="super" depart="10.00" color="red" route="approach2_left"/>
</routes>
