<?xml version="1.0" encoding="UTF-8"?>

<!-- generated on 2022-12-25 17:15:32 by Eclipse SUMO netedit Version 1.15.0
<configuration xmlns:xsi="http://www.w3.org/2001/XMLSchema-instance" xsi:noNamespaceSchemaLocation="http://sumo.dlr.de/xsd/netconvertConfiguration.xsd">

    <input>
        <sumo-net-file value="/Users/mobility/Documents/Bachelorarbeit/simulation/traffic_network/intersection4210.net.xml"/>
    </input>

    <output>
        <output-file value="/Users/mobility/Documents/Bachelorarbeit/simulation/traffic_network/intersection4210.net.xml"/>
        <output.street-names value="true"/>
    </output>

    <processing>
        <geometry.min-radius.fix.railways value="false"/>
        <geometry.max-grade.fix value="false"/>
        <offset.disable-normalization value="true"/>
        <lefthand value="0"/>
    </processing>

    <junctions>
        <no-turnarounds value="true"/>
        <junctions.corner-detail value="5"/>
        <junctions.limit-turn-speed value="5.50"/>
        <rectangular-lane-cut value="0"/>
    </junctions>

    <pedestrian>
        <walkingareas value="0"/>
    </pedestrian>

    <netedit>
        <route-files value="/Users/mobility/Documents/Bachelorarbeit/simulation/traffic_network/4210routes.rou.xml"/>
    </netedit>

</configuration>
-->

<net version="1.9" junctionCornerDetail="5" limitTurnSpeed="5.50" xmlns:xsi="http://www.w3.org/2001/XMLSchema-instance" xsi:noNamespaceSchemaLocation="http://sumo.dlr.de/xsd/net_file.xsd">

    <location netOffset="-1269469.95,-6237950.55" convBoundary="0.00,0.00,824.86,961.68" origBoundary="11.401879,48.781695,11.416237,48.790212" projParameter="+proj=merc +a=6378137 +b=6378137 +lat_ts=0.0 +lon_0=0.0 +x_0=0.0 +y_0=0 +k=1.0 +units=m +nadgrids=@null +wktext +no_defs"/>

    <type id="highway.bridleway" priority="1" numLanes="1" speed="2.78" allow="pedestrian" oneway="1" width="2.00"/>
    <type id="highway.bus_guideway" priority="1" numLanes="1" speed="27.78" allow="bus" oneway="1"/>
    <type id="highway.cycleway" priority="1" numLanes="1" speed="5.56" allow="bicycle" oneway="0" width="1.00"/>
    <type id="highway.footway" priority="1" numLanes="1" speed="2.78" allow="pedestrian" oneway="1" width="2.00"/>
    <type id="highway.ford" priority="1" numLanes="1" speed="2.78" allow="army" oneway="0"/>
    <type id="highway.living_street" priority="2" numLanes="1" speed="2.78" disallow="tram rail_urban rail rail_electric rail_fast ship" oneway="0"/>
    <type id="highway.motorway" priority="14" numLanes="2" speed="39.44" allow="private emergency authority army vip passenger hov taxi bus coach delivery truck trailer motorcycle evehicle custom1 custom2" oneway="1"/>
    <type id="highway.motorway_link" priority="9" numLanes="1" speed="22.22" allow="private emergency authority army vip passenger hov taxi bus coach delivery truck trailer motorcycle evehicle custom1 custom2" oneway="1"/>
    <type id="highway.path" priority="1" numLanes="1" speed="5.56" allow="pedestrian bicycle" oneway="0" width="2.00"/>
    <type id="highway.pedestrian" priority="1" numLanes="1" speed="2.78" allow="pedestrian" oneway="1" width="2.00"/>
    <type id="highway.primary" priority="12" numLanes="2" speed="27.78" disallow="tram rail_urban rail rail_electric rail_fast ship" oneway="0"/>
    <type id="highway.primary_link" priority="7" numLanes="1" speed="22.22" disallow="tram rail_urban rail rail_electric rail_fast ship" oneway="0"/>
    <type id="highway.raceway" priority="15" numLanes="2" speed="83.33" allow="vip" oneway="0"/>
    <type id="highway.residential" priority="3" numLanes="1" speed="13.89" disallow="tram rail_urban rail rail_electric rail_fast ship" oneway="0"/>
    <type id="highway.secondary" priority="11" numLanes="1" speed="27.78" disallow="tram rail_urban rail rail_electric rail_fast ship" oneway="0"/>
    <type id="highway.secondary_link" priority="6" numLanes="1" speed="22.22" disallow="tram rail_urban rail rail_electric rail_fast ship" oneway="0"/>
    <type id="highway.service" priority="1" numLanes="1" speed="5.56" allow="pedestrian delivery bicycle" oneway="0"/>
    <type id="highway.stairs" priority="1" numLanes="1" speed="1.39" allow="pedestrian" oneway="1" width="2.00"/>
    <type id="highway.step" priority="1" numLanes="1" speed="1.39" allow="pedestrian" oneway="1" width="2.00"/>
    <type id="highway.steps" priority="1" numLanes="1" speed="1.39" allow="pedestrian" oneway="1" width="2.00"/>
    <type id="highway.tertiary" priority="10" numLanes="1" speed="22.22" disallow="tram rail_urban rail rail_electric rail_fast ship" oneway="0"/>
    <type id="highway.tertiary_link" priority="5" numLanes="1" speed="22.22" disallow="tram rail_urban rail rail_electric rail_fast ship" oneway="0"/>
    <type id="highway.track" priority="1" numLanes="1" speed="5.56" allow="pedestrian motorcycle moped bicycle" oneway="0"/>
    <type id="highway.trunk" priority="13" numLanes="2" speed="27.78" disallow="pedestrian bicycle tram rail_urban rail rail_electric rail_fast ship" oneway="0"/>
    <type id="highway.trunk_link" priority="8" numLanes="1" speed="22.22" disallow="pedestrian bicycle tram rail_urban rail rail_electric rail_fast ship" oneway="0"/>
    <type id="highway.unclassified" priority="4" numLanes="1" speed="13.89" disallow="tram rail_urban rail rail_electric rail_fast ship" oneway="0"/>
    <type id="highway.unsurfaced" priority="1" numLanes="1" speed="8.33" disallow="tram rail_urban rail rail_electric rail_fast ship" oneway="0"/>
    <type id="railway.highspeed" priority="21" numLanes="1" speed="69.44" allow="rail_fast" oneway="1"/>
    <type id="railway.light_rail" priority="19" numLanes="1" speed="27.78" allow="rail_urban" oneway="1"/>
    <type id="railway.preserved" priority="16" numLanes="1" speed="27.78" allow="rail" oneway="1"/>
    <type id="railway.rail" priority="20" numLanes="1" speed="44.44" allow="rail" oneway="1"/>
    <type id="railway.subway" priority="18" numLanes="1" speed="27.78" allow="rail_urban" oneway="1"/>
    <type id="railway.tram" priority="17" numLanes="1" speed="13.89" allow="tram" oneway="1"/>

    <edge id=":30624883_0" function="internal">
        <lane id=":30624883_0_0" index="0" disallow="tram rail_urban rail rail_electric rail_fast ship" speed="13.89" length="8.02" shape="251.25,893.40 245.38,898.87"/>
    </edge>
    <edge id=":30624883_1" function="internal">
        <lane id=":30624883_1_0" index="0" disallow="tram rail_urban rail rail_electric rail_fast ship" speed="13.89" length="8.38" shape="243.21,896.52 244.67,894.49 245.04,892.65 245.41,890.79 246.85,888.75"/>
        <lane id=":30624883_1_1" index="1" disallow="tram rail_urban rail rail_electric rail_fast ship" speed="13.89" length="8.38" shape="243.21,896.52 249.05,891.07"/>
    </edge>
    <edge id=":321328875_0" function="internal">
        <lane id=":321328875_0_0" index="0" disallow="tram rail_urban rail rail_electric rail_fast ship" speed="3.65" length="4.67" shape="823.69,463.92 825.10,463.59 825.95,463.85 826.26,464.69 826.02,466.11"/>
    </edge>
    <edge id=":7785471444_0" function="internal">
        <lane id=":7785471444_0_0" index="0" disallow="tram rail_urban rail rail_electric rail_fast ship" speed="13.89" length="0.20" shape="483.81,622.85 483.69,622.69"/>
    </edge>
    <edge id=":7785471444_1" function="internal">
        <lane id=":7785471444_1_0" index="0" disallow="tram rail_urban rail rail_electric rail_fast ship" speed="13.89" length="0.30" shape="486.26,620.77 486.43,621.02"/>
    </edge>
    <edge id=":7785471444_2" function="internal">
        <lane id=":7785471444_2_0" index="0" disallow="tram rail_urban rail rail_electric rail_fast ship" speed="3.65" length="2.34" shape="486.26,620.77 486.33,622.21 485.93,623.01"/>
    </edge>
    <edge id=":7785471444_3" function="internal">
        <lane id=":7785471444_3_0" index="0" disallow="tram rail_urban rail rail_electric rail_fast ship" speed="3.65" length="2.34" shape="485.93,623.01 485.05,623.17 483.69,622.69"/>
    </edge>
    <edge id=":8231595464_0" function="internal">
        <lane id=":8231595464_0_0" index="0" disallow="tram rail_urban rail rail_electric rail_fast ship" speed="13.89" length="7.72" shape="463.13,718.40 456.83,722.87"/>
    </edge>
    <edge id=":8231595464_1" function="internal">
        <lane id=":8231595464_1_0" index="0" disallow="tram rail_urban rail rail_electric rail_fast ship" speed="13.89" length="8.79" shape="452.99,717.75 455.24,716.68 457.12,716.67 459.02,716.70 461.35,715.74"/>
    </edge>
    <edge id=":bottomend_0" function="internal">
        <lane id=":bottomend_0_0" index="0" disallow="tram rail_urban rail rail_electric rail_fast ship" speed="3.65" length="4.67" shape="-1.28,0.97 -1.36,-0.47 -0.97,-1.28 -0.09,-1.44 1.28,-0.97"/>
    </edge>
    <edge id=":intersection_0" function="internal">
        <lane id=":intersection_0_0" index="0" disallow="tram rail_urban rail rail_electric rail_fast ship" speed="13.89" length="14.86" shape="530.97,679.59 526.64,681.42 523.10,682.13 519.95,682.61 516.79,683.78"/>
    </edge>
    <edge id=":intersection_1" function="internal">
        <lane id=":intersection_1_0" index="0" disallow="tram rail_urban rail rail_electric rail_fast ship" speed="8.06" length="4.05" shape="529.41,676.80 525.80,678.17 525.62,678.17"/>
    </edge>
    <edge id=":intersection_8" function="internal">
        <lane id=":intersection_8_0" index="0" disallow="tram rail_urban rail rail_electric rail_fast ship" speed="8.06" length="10.18" shape="525.62,678.17 522.59,678.06 519.78,676.46 517.36,673.38"/>
    </edge>
    <edge id=":intersection_2" function="internal">
        <lane id=":intersection_2_0" index="0" disallow="tram rail_urban rail rail_electric rail_fast ship" speed="6.58" length="9.13" shape="520.13,671.78 521.69,673.76 523.49,674.80 525.55,674.88 527.86,674.00"/>
    </edge>
    <edge id=":intersection_3" function="internal">
        <lane id=":intersection_3_0" index="0" disallow="tram rail_urban rail rail_electric rail_fast ship" speed="7.96" length="14.28" shape="520.13,671.78 521.60,675.42 521.53,678.63 519.93,681.42 516.79,683.78"/>
    </edge>
    <edge id=":intersection_4" function="internal">
        <lane id=":intersection_4_0" index="0" disallow="tram rail_urban rail rail_electric rail_fast ship" speed="3.65" length="1.44" shape="520.13,671.78 520.04,673.22"/>
    </edge>
    <edge id=":intersection_9" function="internal">
        <lane id=":intersection_9_0" index="0" disallow="tram rail_urban rail rail_electric rail_fast ship" speed="3.65" length="3.23" shape="520.04,673.22 519.55,673.96 518.66,674.02 517.36,673.38"/>
    </edge>
    <edge id=":intersection_5" function="internal">
        <lane id=":intersection_5_0" index="0" disallow="tram rail_urban rail rail_electric rail_fast ship" speed="6.46" length="9.03" shape="515.25,680.97 517.23,679.48 518.25,677.72 518.29,675.68 517.36,673.38"/>
    </edge>
    <edge id=":intersection_6" function="internal">
        <lane id=":intersection_6_0" index="0" disallow="tram rail_urban rail rail_electric rail_fast ship" speed="13.89" length="14.41" shape="515.25,680.97 527.86,674.00"/>
    </edge>
    <edge id=":intersection_7" function="internal">
        <lane id=":intersection_7_0" index="0" disallow="tram rail_urban rail rail_electric rail_fast ship" speed="3.65" length="1.44" shape="515.25,680.97 516.69,681.09"/>
    </edge>
    <edge id=":intersection_10" function="internal">
        <lane id=":intersection_10_0" index="0" disallow="tram rail_urban rail rail_electric rail_fast ship" speed="3.65" length="3.23" shape="516.69,681.09 517.42,681.60 517.46,682.50 516.79,683.78"/>
    </edge>
    <edge id=":leftend_0" function="internal">
        <lane id=":leftend_0_0" index="0" disallow="tram rail_urban rail rail_electric rail_fast ship" speed="3.65" length="4.67" shape="183.54,962.77 182.14,963.10 181.28,962.85 180.97,962.01 181.20,960.59"/>
    </edge>

    <edge id="-1040258016" from="30624883" to="leftend" name="Ettinger Straße" priority="11" type="highway.secondary" shape="247.24,894.98 228.35,912.43 182.37,961.68">
        <lane id="-1040258016_0" index="0" disallow="tram rail_urban rail rail_electric rail_fast ship" speed="13.89" length="88.97" shape="245.38,898.87 229.48,913.57 183.54,962.77">
            <param key="origId" value="1040258016"/>
        </lane>
        <param key="ref" value="IN 5"/>
    </edge>
    <edge id="-201894096#2" from="bottomend" to="7785471444" name="Furtwänglerstraße" priority="10" type="highway.tertiary" shape="0.00,0.00 93.51,123.48 213.52,278.59 220.74,287.91 259.89,338.38 327.79,423.39 340.95,439.05 360.39,464.09 370.77,477.49 405.40,521.35 432.73,555.38 480.76,616.07 485.05,621.83">
        <lane id="-201894096#2_0" index="0" disallow="tram rail_urban rail rail_electric rail_fast ship" speed="13.89" length="788.57" shape="1.28,-0.97 94.78,122.51 214.79,277.61 222.00,286.93 261.15,337.39 329.03,422.38 342.19,438.04 361.65,463.11 372.03,476.50 406.65,520.35 433.98,554.38 482.03,615.10 486.26,620.77">
            <param key="origId" value="201894096 201894096 1084717761 834006815"/>
        </lane>
    </edge>
    <edge id="-627181818" from="8231595464" to="30624883" name="Ettinger Straße" priority="11" type="highway.secondary" shape="459.01,719.23 428.31,742.31 417.80,749.98 371.87,782.22 350.68,800.04 324.84,821.77 247.24,894.98">
        <lane id="-627181818_0" index="0" disallow="tram rail_urban rail rail_electric rail_fast ship" speed="13.89" length="267.57" shape="456.83,722.87 429.26,743.60 418.73,751.28 372.85,783.49 351.71,801.26 325.90,822.97 251.25,893.40">
            <param key="origId" value="627181818 965240513 1040258017"/>
        </lane>
        <param key="ref" value="IN 5"/>
    </edge>
    <edge id="-834006812#2" from="7785471444" to="intersection" name="Furtwänglerstraße" priority="10" type="highway.tertiary" shape="485.05,621.83 507.10,653.47 512.57,661.90 522.39,678.87">
        <lane id="-834006812#2_0" index="0" disallow="tram rail_urban rail rail_electric rail_fast ship" speed="13.89" length="60.96" shape="486.43,621.02 508.43,652.58 513.93,661.06 520.13,671.78">
            <param key="origId" value="834006812"/>
        </lane>
    </edge>
    <edge id="-834006813#2" from="321328875" to="intersection" name="Ettinger Straße" priority="11" type="highway.secondary" shape="824.86,465.01 799.10,492.12 792.62,497.95 762.93,525.29 727.14,553.82 694.15,577.88 664.15,598.27 629.49,619.31 522.39,678.87">
        <lane id="-834006813#2_0" index="0" disallow="tram rail_urban rail rail_electric rail_fast ship" speed="13.89" length="366.27" shape="828.34,468.32 802.45,495.56 795.85,501.50 766.06,528.94 730.05,557.64 696.91,581.81 666.75,602.31 631.90,623.46 530.97,679.59">
            <param key="origId" value="834006813"/>
        </lane>
        <lane id="-834006813#2_1" index="1" disallow="tram rail_urban rail rail_electric rail_fast ship" speed="13.89" length="366.27" shape="826.02,466.11 800.22,493.27 793.70,499.13 763.97,526.51 728.11,555.09 695.07,579.19 665.02,599.62 630.29,620.69 529.41,676.80">
            <param key="origId" value="834006813"/>
        </lane>
        <param key="ref" value="IN 5"/>
    </edge>
    <edge id="-885173795#2" from="intersection" to="8231595464" name="Ettinger Straße" priority="11" type="highway.secondary" shape="522.39,678.87 505.05,688.41 500.16,691.69 459.01,719.23">
        <lane id="-885173795#2_0" index="0" disallow="tram rail_urban rail rail_electric rail_fast ship" speed="13.89" length="63.90" shape="516.79,683.78 505.88,689.78 501.05,693.02 463.13,718.40">
            <param key="origId" value="885173795"/>
        </lane>
        <param key="ref" value="IN 5"/>
    </edge>
    <edge id="1040258016" from="leftend" to="30624883" name="Ettinger Straße" priority="11" type="highway.secondary" shape="182.37,961.68 228.35,912.43 247.24,894.98">
        <lane id="1040258016_0" index="0" disallow="tram rail_urban rail rail_electric rail_fast ship" speed="13.89" length="89.21" shape="181.20,960.59 227.22,911.29 243.21,896.52">
            <param key="origId" value="1040258016"/>
        </lane>
        <param key="ref" value="IN 5"/>
    </edge>
    <edge id="1040258017" from="30624883" to="8231595464" name="Ettinger Straße" priority="11" type="highway.secondary" shape="247.24,894.98 324.84,821.77 350.68,800.04 371.87,782.22 417.80,749.98 428.31,742.31 459.01,719.23">
        <lane id="1040258017_0" index="0" disallow="tram rail_urban rail rail_electric rail_fast ship" speed="13.89" length="268.10" shape="246.85,888.75 321.65,818.18 347.59,796.37 368.94,778.41 415.01,746.08 425.45,738.45 452.99,717.75">
            <param key="origId" value="1040258017 965240513 627181818"/>
        </lane>
        <lane id="1040258017_1" index="1" disallow="tram rail_urban rail rail_electric rail_fast ship" speed="13.89" length="268.10" shape="249.05,891.07 323.78,820.57 349.65,798.82 370.89,780.95 416.87,748.68 427.36,741.02 454.91,720.31">
            <param key="origId" value="1040258017 965240513 627181818"/>
        </lane>
        <param key="ref" value="IN 5"/>
    </edge>
    <edge id="834006812#0" from="intersection" to="7785471444" name="Furtwänglerstraße" priority="10" type="highway.tertiary" shape="522.39,678.87 512.57,661.90 507.10,653.47 485.05,621.83">
        <lane id="834006812#0_0" index="0" disallow="tram rail_urban rail rail_electric rail_fast ship" speed="13.89" length="60.69" shape="517.36,673.38 511.21,662.74 505.77,654.36 483.81,622.85">
            <param key="origId" value="834006812"/>
        </lane>
    </edge>
    <edge id="834006814#0" from="intersection" to="321328875" name="Ettinger Straße" priority="11" type="highway.secondary" shape="522.39,678.87 630.21,618.97 664.69,598.34 694.86,577.67 799.10,492.12 792.62,497.95 762.93,525.29 727.14,553.82 694.15,577.88 664.15,598.27 629.49,619.31 762.82,525.20 793.18,497.55 811.89,478.86 824.86,465.01">
        <lane id="834006814#0_0" index="0" disallow="tram rail_urban rail rail_electric rail_fast ship" speed="13.89" length="364.81" shape="527.86,674.00 629.41,617.58 663.83,596.99 693.93,576.37 726.16,552.55 761.78,523.98 792.08,496.39 810.74,477.75 823.69,463.92">
            <param key="origId" value="834006814"/>
        </lane>
        <param key="ref" value="IN 5"/>
    </edge>
    <edge id="834006815" from="7785471444" to="bottomend" name="Furtwänglerstraße" priority="10" type="highway.tertiary" shape="485.05,621.83 480.76,616.07 432.73,555.38 405.40,521.35 370.77,477.49 360.39,464.09 340.95,439.05 327.79,423.39 259.89,338.38 220.74,287.91 213.52,278.59 93.51,123.48 0.00,0.00">
        <lane id="834006815_0" index="0" disallow="tram rail_urban rail rail_electric rail_fast ship" speed="13.89" length="788.55" shape="483.69,622.69 479.49,617.04 431.48,556.38 404.15,522.35 369.51,478.48 359.13,465.07 339.71,440.06 326.55,424.40 258.63,339.37 219.48,288.89 212.25,279.57 92.24,124.45 -1.28,0.97">
            <param key="origId" value="834006815 1084717761 201894096 201894096"/>
        </lane>
    </edge>
    <edge id="885173795#0" from="8231595464" to="intersection" name="Ettinger Straße" priority="11" type="highway.secondary" shape="459.01,719.23 500.16,691.69 505.05,688.41 522.39,678.87">
        <lane id="885173795#0_0" index="0" disallow="tram rail_urban rail rail_electric rail_fast ship" speed="13.89" length="64.18" shape="461.35,715.74 499.27,690.36 504.22,687.04 515.25,680.97">
            <param key="origId" value="885173795"/>
        </lane>
        <param key="ref" value="IN 5"/>
    </edge>

    <tlLogic id="intersection" type="static" programID="0" offset="0">
        <phase duration="38" state="GgrrGGg"/>
        <phase duration="3"  state="ygrryyy"/>
        <phase duration="6"  state="GGrrrrr"/>
        <phase duration="3"  state="yyrrrrr"/>
        <phase duration="37" state="rrGgGrr"/>
        <phase duration="3"  state="rryyyrr"/>
    </tlLogic>

    <junction id="30624883" type="priority" x="247.24" y="894.98" incLanes="-627181818_0 1040258016_0" intLanes=":30624883_0_0 :30624883_1_0 :30624883_1_1" shape="252.34,894.56 245.76,887.58 244.13,890.26 243.95,891.48 243.77,892.70 243.27,893.97 242.13,895.35 246.47,900.05">
        <request index="0" response="000" foes="000" cont="0"/>
        <request index="1" response="000" foes="000" cont="0"/>
        <request index="2" response="000" foes="000" cont="0"/>
    </junction>
    <junction id="321328875" type="priority" x="824.86" y="465.01" incLanes="834006814#0_0" intLanes=":321328875_0_0" shape="824.86,465.01 829.50,469.42 822.52,462.82">
        <request index="0" response="0" foes="0" cont="0"/>
    </junction>
    <junction id="7785471444" type="priority" x="485.05" y="621.83" incLanes="834006812#0_0 -201894096#2_0" intLanes=":7785471444_0_0 :7785471444_1_0 :7785471444_3_0" shape="482.50,623.76 487.75,620.10 487.54,619.82 482.41,623.64">
        <request index="0" response="000" foes="100" cont="0"/>
        <request index="1" response="000" foes="000" cont="0"/>
        <request index="2" response="001" foes="001" cont="1"/>
    </junction>
    <junction id="8231595464" type="priority" x="459.01" y="719.23" incLanes="-885173795#2_0 1040258017_0 1040258017_1" intLanes=":8231595464_0_0 :8231595464_1_0" shape="464.02,719.73 460.46,714.41 457.44,715.44 456.19,715.37 454.95,715.32 453.61,715.58 452.03,716.47 457.80,724.15">
        <request index="0" response="00" foes="00" cont="0"/>
        <request index="1" response="00" foes="00" cont="0"/>
    </junction>
    <junction id="bottomend" type="priority" x="0.00" y="0.00" incLanes="834006815_0" intLanes=":bottomend_0_0" shape="0.00,0.00 -2.55,1.93 0.00,-0.00">
        <request index="0" response="0" foes="0" cont="0"/>
    </junction>
    <junction id="intersection" type="traffic_light" x="522.39" y="678.87" incLanes="-834006813#2_0 -834006813#2_1 -834006812#2_0 885173795#0_0" intLanes=":intersection_0_0 :intersection_8_0 :intersection_2_0 :intersection_3_0 :intersection_9_0 :intersection_5_0 :intersection_6_0 :intersection_10_0" shape="531.74,680.99 527.08,672.60 524.91,673.29 523.94,673.17 523.05,672.74 522.25,672.01 521.52,670.97 515.98,674.18 516.70,676.32 516.61,677.26 516.20,678.11 515.49,678.89 514.48,679.57 517.56,685.18 520.41,683.88 522.68,683.31 524.66,683.10 526.63,682.88 528.90,682.30">
        <request index="0" response="00000000" foes="10001000" cont="0"/>
        <request index="1" response="01100000" foes="01111000" cont="1"/>
        <request index="2" response="01000000" foes="01000000" cont="0"/>
        <request index="3" response="01000011" foes="11000011" cont="0"/>
        <request index="4" response="00100010" foes="00100010" cont="1"/>
        <request index="5" response="00000000" foes="00010010" cont="0"/>
        <request index="6" response="00000000" foes="00001110" cont="0"/>
        <request index="7" response="00001001" foes="00001001" cont="1"/>
    </junction>
    <junction id="leftend" type="priority" x="182.37" y="961.68" incLanes="-1040258016_0" intLanes=":leftend_0_0" shape="182.37,961.68 184.71,963.86 182.37,961.68">
        <request index="0" response="0" foes="0" cont="0"/>
    </junction>

    <junction id=":7785471444_3_0" type="internal" x="485.93" y="623.01" incLanes=":7785471444_2_0 834006812#0_0" intLanes=":7785471444_0_0"/>
    <junction id=":intersection_8_0" type="internal" x="525.62" y="678.17" incLanes=":intersection_1_0 885173795#0_0" intLanes=":intersection_3_0 :intersection_4_0 :intersection_5_0 :intersection_6_0"/>
    <junction id=":intersection_9_0" type="internal" x="520.04" y="673.22" incLanes=":intersection_4_0 -834006813#2_1 885173795#0_0" intLanes=":intersection_1_0 :intersection_5_0"/>
    <junction id=":intersection_10_0" type="internal" x="516.69" y="681.09" incLanes=":intersection_7_0 -834006812#2_0 -834006813#2_0" intLanes=":intersection_0_0 :intersection_3_0"/>

    <connection from="-1040258016" to="1040258016" fromLane="0" toLane="0" via=":leftend_0_0" dir="t" state="M"/>
    <connection from="-201894096#2" to="-834006812#2" fromLane="0" toLane="0" via=":7785471444_1_0" dir="s" state="M"/>
    <connection from="-201894096#2" to="834006815" fromLane="0" toLane="0" via=":7785471444_2_0" dir="t" state="m"/>
    <connection from="-627181818" to="-1040258016" fromLane="0" toLane="0" via=":30624883_0_0" dir="s" state="M"/>
    <connection from="-834006812#2" to="834006814#0" fromLane="0" toLane="0" via=":intersection_2_0" tl="intersection" linkIndex="2" dir="r" state="o"/>
    <connection from="-834006812#2" to="-885173795#2" fromLane="0" toLane="0" via=":intersection_3_0" tl="intersection" linkIndex="2" dir="l" state="o"/>
    <connection from="-834006812#2" to="834006812#0" fromLane="0" toLane="0" via=":intersection_4_0" tl="intersection" linkIndex="3" dir="t" state="o"/>
    <connection from="-834006813#2" to="-885173795#2" fromLane="0" toLane="0" via=":intersection_0_0" tl="intersection" linkIndex="0" dir="s" state="O"/>
    <connection from="-834006813#2" to="834006812#0" fromLane="1" toLane="0" via=":intersection_1_0" tl="intersection" linkIndex="1" dir="l" state="o"/>
    <connection from="-885173795#2" to="-627181818" fromLane="0" toLane="0" via=":8231595464_0_0" dir="s" state="M"/>
    <connection from="1040258016" to="1040258017" fromLane="0" toLane="0" via=":30624883_1_0" dir="s" state="M"/>
    <connection from="1040258016" to="1040258017" fromLane="0" toLane="1" via=":30624883_1_1" dir="s" state="M"/>
    <connection from="1040258017" to="885173795#0" fromLane="0" toLane="0" via=":8231595464_1_0" dir="s" state="M"/>
    <connection from="834006812#0" to="834006815" fromLane="0" toLane="0" via=":7785471444_0_0" dir="s" state="M"/>
    <connection from="834006814#0" to="-834006813#2" fromLane="0" toLane="1" via=":321328875_0_0" dir="t" state="M"/>
    <connection from="834006815" to="-201894096#2" fromLane="0" toLane="0" via=":bottomend_0_0" dir="t" state="M"/>
    <connection from="885173795#0" to="834006812#0" fromLane="0" toLane="0" via=":intersection_5_0" tl="intersection" linkIndex="4" dir="r" state="O"/>
    <connection from="885173795#0" to="834006814#0" fromLane="0" toLane="0" via=":intersection_6_0" tl="intersection" linkIndex="5" dir="s" state="O"/>
    <connection from="885173795#0" to="-885173795#2" fromLane="0" toLane="0" via=":intersection_7_0" tl="intersection" linkIndex="6" dir="t" state="o"/>

    <connection from=":30624883_0" to="-1040258016" fromLane="0" toLane="0" dir="s" state="M"/>
    <connection from=":30624883_1" to="1040258017" fromLane="0" toLane="0" dir="s" state="M"/>
    <connection from=":30624883_1" to="1040258017" fromLane="1" toLane="1" dir="s" state="M"/>
    <connection from=":321328875_0" to="-834006813#2" fromLane="0" toLane="1" dir="t" state="M"/>
    <connection from=":7785471444_0" to="834006815" fromLane="0" toLane="0" dir="s" state="M"/>
    <connection from=":7785471444_1" to="-834006812#2" fromLane="0" toLane="0" dir="s" state="M"/>
    <connection from=":7785471444_2" to="834006815" fromLane="0" toLane="0" via=":7785471444_3_0" dir="t" state="m"/>
    <connection from=":7785471444_3" to="834006815" fromLane="0" toLane="0" dir="t" state="M"/>
    <connection from=":8231595464_0" to="-627181818" fromLane="0" toLane="0" dir="s" state="M"/>
    <connection from=":8231595464_1" to="885173795#0" fromLane="0" toLane="0" dir="s" state="M"/>
    <connection from=":bottomend_0" to="-201894096#2" fromLane="0" toLane="0" dir="t" state="M"/>
    <connection from=":intersection_0" to="-885173795#2" fromLane="0" toLane="0" dir="s" state="M"/>
    <connection from=":intersection_1" to="834006812#0" fromLane="0" toLane="0" via=":intersection_8_0" dir="l" state="m"/>
    <connection from=":intersection_8" to="834006812#0" fromLane="0" toLane="0" dir="l" state="M"/>
    <connection from=":intersection_2" to="834006814#0" fromLane="0" toLane="0" dir="r" state="M"/>
    <connection from=":intersection_3" to="-885173795#2" fromLane="0" toLane="0" dir="l" state="M"/>
    <connection from=":intersection_4" to="834006812#0" fromLane="0" toLane="0" via=":intersection_9_0" dir="t" state="m"/>
    <connection from=":intersection_9" to="834006812#0" fromLane="0" toLane="0" dir="t" state="M"/>
    <connection from=":intersection_5" to="834006812#0" fromLane="0" toLane="0" dir="r" state="M"/>
    <connection from=":intersection_6" to="834006814#0" fromLane="0" toLane="0" dir="s" state="M"/>
    <connection from=":intersection_7" to="-885173795#2" fromLane="0" toLane="0" via=":intersection_10_0" dir="t" state="m"/>
    <connection from=":intersection_10" to="-885173795#2" fromLane="0" toLane="0" dir="t" state="M"/>
    <connection from=":leftend_0" to="1040258016" fromLane="0" toLane="0" dir="t" state="M"/>

</net>
