<?xml version="1.0" encoding="UTF-8"?>

<!-- generated on 2022-12-24 13:29:16.754475 by osmWebWizard.py UNKNOWN
<configuration>
    <allow-fringe.min-length value="1000.0"/>
    <end value="3600"/>
    <fringe-factor value="5"/>
    <fringe-start-attributes value="departSpeed=&quot;max&quot;"/>
    <insertion-density value="12.0"/>
    <lanes value="True"/>
    <min-distance.fringe value="10.0"/>
    <min-distance value="300.0"/>
    <net-file value="/usr/local/Cellar/sumo/1.15.0/share/sumo/tools/2022-12-24-13-29-11/osm.net.xml.gz"/>
    <remove-loops value="True"/>
    <route-file value="/usr/local/Cellar/sumo/1.15.0/share/sumo/tools/2022-12-24-13-29-11/osm.passenger.rou.xml"/>
    <trip-attributes value="departLane=&quot;best&quot;"/>
    <output-trip-file value="/usr/local/Cellar/sumo/1.15.0/share/sumo/tools/2022-12-24-13-29-11/osm.passenger.trips.xml"/>
    <prefix value="veh"/>
    <validate value="True"/>
    <vehicle-class value="passenger"/>
</configuration>
-->

<!-- generated on 2022-12-24 13:29:16 by Eclipse SUMO duarouter Version 1.15.0
<configuration xmlns:xsi="http://www.w3.org/2001/XMLSchema-instance" xsi:noNamespaceSchemaLocation="http://sumo.dlr.de/xsd/duarouterConfiguration.xsd">

    <input>
        <net-file value="/usr/local/Cellar/sumo/1.15.0/share/sumo/tools/2022-12-24-13-29-11/osm.net.xml.gz"/>
        <route-files value="/usr/local/Cellar/sumo/1.15.0/share/sumo/tools/2022-12-24-13-29-11/osm.passenger.trips.xml"/>
    </input>

    <output>
        <output-file value="/usr/local/Cellar/sumo/1.15.0/share/sumo/tools/2022-12-24-13-29-11/osm.passenger.trips.xml.tmp"/>
        <alternatives-output value="NUL"/>
        <write-trips value="true"/>
    </output>

    <processing>
        <remove-loops value="true"/>
    </processing>

    <time>
        <begin value="0"/>
        <end value="3600"/>
    </time>

    <report>
        <no-warnings value="true"/>
        <ignore-errors value="true"/>
        <no-step-log value="true"/>
    </report>

</configuration>
-->

<routes xmlns:xsi="http://www.w3.org/2001/XMLSchema-instance" xsi:noNamespaceSchemaLocation="http://sumo.dlr.de/xsd/routes_file.xsd">
    <vType id="veh_passenger" vClass="passenger"/>
    <trip id="veh0" type="veh_passenger" depart="0.00" departLane="best" from="-885173795#2" to="-1040258016"/>
    <trip id="veh1" type="veh_passenger" depart="69.51" departLane="best" departSpeed="max" from="-834006813#2" to="-834006814#1"/>
    <trip id="veh2" type="veh_passenger" depart="139.02" departLane="best" departSpeed="max" from="1040258016" to="834006813#0"/>
    <trip id="veh3" type="veh_passenger" depart="208.53" departLane="best" from="834006810#0" to="-1040258016"/>
    <trip id="veh4" type="veh_passenger" depart="278.03" departLane="best" departSpeed="max" from="-834006813#2" to="-1040258016"/>
    <trip id="veh5" type="veh_passenger" depart="347.54" departLane="best" from="-834006812#2" to="834006813#0"/>
    <trip id="veh6" type="veh_passenger" depart="417.05" departLane="best" departSpeed="max" from="-201894096#2" to="-834006812#2"/>
    <trip id="veh7" type="veh_passenger" depart="486.56" departLane="best" from="885173795#0" to="834006813#0"/>
    <trip id="veh8" type="veh_passenger" depart="556.07" departLane="best" departSpeed="max" from="1040258016" to="834006813#0"/>
    <trip id="veh9" type="veh_passenger" depart="625.58" departLane="best" departSpeed="max" from="-834006813#2" to="-1040258016"/>
    <trip id="veh10" type="veh_passenger" depart="695.08" departLane="best" departSpeed="max" from="-201894096#2" to="-1040258016"/>
    <trip id="veh11" type="veh_passenger" depart="764.59" departLane="best" from="1040258017" to="834006813#0"/>
    <trip id="veh12" type="veh_passenger" depart="834.10" departLane="best" departSpeed="max" from="1040258016" to="834006813#0"/>
    <trip id="veh13" type="veh_passenger" depart="903.61" departLane="best" from="1040258017" to="834006813#0"/>
    <trip id="veh14" type="veh_passenger" depart="973.12" departLane="best" from="1040258017" to="834006813#0"/>
    <trip id="veh15" type="veh_passenger" depart="1042.63" departLane="best" departSpeed="max" from="-834006813#2" to="-834006814#1"/>
    <trip id="veh16" type="veh_passenger" depart="1112.14" departLane="best" departSpeed="max" from="-201894096#2" to="-834006814#1"/>
    <trip id="veh17" type="veh_passenger" depart="1181.64" departLane="best" departSpeed="max" from="-201894096#2" to="-834006814#1"/>
    <trip id="veh18" type="veh_passenger" depart="1251.15" departLane="best" departSpeed="max" from="-834006813#2" to="834006812#0"/>
    <trip id="veh19" type="veh_passenger" depart="1320.66" departLane="best" departSpeed="max" from="-834006813#2" to="834006815"/>
    <trip id="veh20" type="veh_passenger" depart="1390.17" departLane="best" from="885173795#0" to="834006813#0"/>
    <trip id="veh21" type="veh_passenger" depart="1459.68" departLane="best" from="1040258017" to="834006813#0"/>
    <trip id="veh22" type="veh_passenger" depart="1529.19" departLane="best" from="885173795#0" to="834006813#0"/>
    <trip id="veh23" type="veh_passenger" depart="1598.70" departLane="best" from="1040258017" to="834006813#0"/>
    <trip id="veh24" type="veh_passenger" depart="1668.20" departLane="best" departSpeed="max" from="-834006813#2" to="-1040258016"/>
    <trip id="veh25" type="veh_passenger" depart="1737.71" departLane="best" departSpeed="max" from="-834006813#2" to="-834006814#1"/>
    <trip id="veh26" type="veh_passenger" depart="1807.22" departLane="best" from="834006812#0" to="834006815"/>
    <trip id="veh27" type="veh_passenger" depart="1876.73" departLane="best" departSpeed="max" from="-834006813#2" to="-834006814#1"/>
    <trip id="veh28" type="veh_passenger" depart="1946.24" departLane="best" from="-834006814#1" to="834006815"/>
    <trip id="veh29" type="veh_passenger" depart="2015.75" departLane="best" departSpeed="max" from="-834006813#2" to="-834006814#1"/>
    <trip id="veh30" type="veh_passenger" depart="2085.25" departLane="best" from="885173795#0" to="834006813#0"/>
    <trip id="veh31" type="veh_passenger" depart="2154.76" departLane="best" departSpeed="max" from="-201894096#2" to="-1040258016"/>
    <trip id="veh32" type="veh_passenger" depart="2224.27" departLane="best" departSpeed="max" from="-201894096#2" to="834006813#0"/>
    <trip id="veh33" type="veh_passenger" depart="2293.78" departLane="best" departSpeed="max" from="1040258016" to="834006810#0"/>
    <trip id="veh34" type="veh_passenger" depart="2363.29" departLane="best" departSpeed="max" from="-201894096#2" to="-627181818"/>
    <trip id="veh35" type="veh_passenger" depart="2432.80" departLane="best" from="885173795#0" to="834006813#0"/>
    <trip id="veh36" type="veh_passenger" depart="2502.31" departLane="best" from="885173795#0" to="834006815"/>
    <trip id="veh37" type="veh_passenger" depart="2571.81" departLane="best" departSpeed="max" from="-201894096#2" to="834006813#0"/>
    <trip id="veh38" type="veh_passenger" depart="2641.32" departLane="best" departSpeed="max" from="1040258016" to="834006813#0"/>
    <trip id="veh39" type="veh_passenger" depart="2710.83" departLane="best" departSpeed="max" from="-201894096#2" to="834006810#0"/>
    <trip id="veh40" type="veh_passenger" depart="2780.34" departLane="best" departSpeed="max" from="-834006813#2" to="834006815"/>
    <trip id="veh41" type="veh_passenger" depart="2849.85" departLane="best" departSpeed="max" from="-834006813#2" to="-627181818"/>
    <trip id="veh42" type="veh_passenger" depart="2919.36" departLane="best" from="834006812#0" to="834006815"/>
    <trip id="veh43" type="veh_passenger" depart="2988.86" departLane="best" from="-834006814#1" to="-1040258016"/>
    <trip id="veh44" type="veh_passenger" depart="3058.37" departLane="best" departSpeed="max" from="1040258016" to="834006813#0"/>
    <trip id="veh45" type="veh_passenger" depart="3127.88" departLane="best" departSpeed="max" from="1040258016" to="834006813#0"/>
    <trip id="veh46" type="veh_passenger" depart="3197.39" departLane="best" departSpeed="max" from="-201894096#2" to="-885173795#2"/>
    <trip id="veh47" type="veh_passenger" depart="3266.90" departLane="best" from="834006812#0" to="834006815"/>
    <trip id="veh48" type="veh_passenger" depart="3336.41" departLane="best" departSpeed="max" from="-834006813#2" to="-1040258016"/>
    <trip id="veh49" type="veh_passenger" depart="3405.92" departLane="best" from="834006812#0" to="834006815"/>
    <trip id="veh50" type="veh_passenger" depart="3475.42" departLane="best" departSpeed="max" from="-201894096#2" to="834006813#0"/>
    <trip id="veh51" type="veh_passenger" depart="3544.93" departLane="best" departSpeed="max" from="-201894096#2" to="834006813#0"/>
</routes>
